
#######################################################################
#
#                 Cambridge Crystallographic Data Centre
#                                CCDC 
#
#######################################################################
#
# If this CIF has been generated from an entry in the Cambridge 
# Structural Database, then it will include bibliographic, chemical, 
# crystal, experimental, refinement or atomic coordinate data resulting 
# from the CCDC's data processing and validation procedures.
#
#######################################################################

data_BZAMID01
_symmetry_cell_setting           monoclinic
_symmetry_space_group_name_H-M   'P 21/c'
_symmetry_Int_Tables_number      14
_space_group_name_Hall           '-P 2ybc'
loop_
_symmetry_equiv_pos_site_id
_symmetry_equiv_pos_as_xyz
1 x,y,z
2 -x,1/2+y,1/2-z
3 -x,-y,-z
4 x,1/2-y,1/2+z
_cell_length_a                   5.607(2)
_cell_length_b                   5.046(2)
_cell_length_c                   22.053(8)
_cell_angle_alpha                90
_cell_angle_beta                 90.66(3)
_cell_angle_gamma                90
_cell_volume                     623.902
loop_
_atom_site_label
_atom_site_type_symbol
_atom_site_fract_x
_atom_site_fract_y
_atom_site_fract_z
C1 C -0.1777 0.1305 0.1981
C2 C -0.3474 -0.0658 0.2037
C3 C -0.5216 -0.095 0.1584
C4 C -0.5255 0.0729 0.1091
C5 C -0.3556 0.2702 0.1044
C6 C -0.1586 0.296 0.1489
C7 C -0.7129 0.0311 0.0612
H1 H -0.055 0.1551 0.2291
H2 H -0.3623 -0.1805 0.2407
H3 H -0.643 -0.2349 0.1639
H4 H -0.3476 0.3793 0.0684
H5 H -0.0495 0.4336 0.1426
H6 H -0.9071 0.2304 0.0008
H7 H -0.7481 0.4096 0.0414
N1 N -0.78 0.2403 0.0283
O1 O -0.8021 -0.1911 0.0531

#END
